-----BEGIN RSA PRIVATE KEY-----
MIIJKwIBAAKCAgEAuYLwGvoKqlL4Hrf1Ldr2Ed2ukzDLw7VDPzvZnIJ/4U54dDYS
iZFDeOYE3jSeQj6iDfne08ZszEtPZxZkkldjvPboncvfI2ht3Xrr+8a0nptS3iQq
6RtHDpcN1d4xlKI6QrL9z3D0EEu47/M7BrPWgCGo2f9KdDZmOX+wPJQGLEaeSM1c
qcxOaR/dqRaVguk6g/+n4XSvfjGVbvjZAD3YnXCpGAyhJqKRbFxGjDRqJjTf5CUu
XhljKvOcOyrO6uDI/bRKdNQAauiPnw2b9WkUyKFctoQQfJdEtLjOT8z/X+TShAse
pPERlo9lOCsnMp0R/ne5ZKvM5QXmgtqkXgtVmJ59A0IEzdUeFQ0/0TT3p9+oysnA
YM8OcxPglRit3kUNFcZ+gg+d/klqFEVOxtMuaL1tFrfsV+jMIbjVMQTdK14ZjnyK
kjwBLPTdCbdvyhX39heTfyH24TztMjcnYdDBepIy/mKgO8HT6pnmbphY51j4a6Vw
6d25Yk9KZKGFJeEsmA9tZyGpcesb6E9ot8Hsc0CsuMiLSy+60FXadVibG7w0fRUw
mgLillmDftzo7PGU1nbMEsl6Y8TVQJVA5MaON/kY7HCvd6bXn7c1RQ/CGXewKF8C
NXz+TSPM4OeJ8u6GYF1Kx+dSYZ+BzDOlLhMLkD5Ppw0vfP9l2DnkdQcOs08CAwEA
AQKCAgEAhzYHeTIcCe61R/Z+rnB0f6sa7c9YBQodvH4L6wY23OoL42/x7PDCw+Cr
VaX2X4Q1K4iev65VaEXP1uw8W2l0matA+po4xh78TLymOXmn9h5xtNWZrROjo9+3
RtVPP+1KF4lMcyD50tLONZ4LvKPhSLy/zDxFcRShR3Fo645cPXMvNRLxYhU2ZWrD
bdW3HZaOft0c6LfanVjYeOzJhWKOepo9tPinkHhXFCrhhJlDcRuCwE/VTuKkJA8x
JPLbo9g4xqncxvAqacGdxKjvrlxruJvb7m+tcJH0kuBMB1/8FlG6mmFccY3/asST
WvAg/sP69IUgzF5n1dmKHH/t41nRhU//bOfWhkYOBXt7QLPp/JyP26en6YfLadWe
CzAp4rdjomaBeUYj2IquNuQA0v5DJaxljxa9M8A6lfiPtq3IE5+/lkFWHW6/om8j
BuMbAOkb3MoCOxSyJZ71dIAwgtw4+YIr/KGUK7zCXmadWWgOtEI/wnKovREHqwcA
SMLL6ciUuNz0Ljgf1YEe2Qdf8/pCh9d/+3ITf0xqgFp54KY5WzLFhPLH3YOiV8Fb
A4XfR16P0hHzSbHc405NEzUBy8Z4toy2C23rF+waKbdVpLyEsINZBQcEXmEcb4BW
Vks5F0eNfISbdOwkgfAxnRxN3CvLxsuK+PlgMDyKPGnv8p73aJkCggEBAMl4nXoJ
5fy5uMSOGkqCVoz9Ph/H+byv04Tq5fGvxPnCuZGRPPRR9YX17J/F0Ik2996bnyDl
Yac9cmW1tuKsChzHxoz+ICSydV8y/e7464gQyIsyL/iV0LJgNUzblsF4MzCOxBXu
6VyMRTHwWeKiO2UUwzXmIoUTv4f9uzov47kgtNFt9Gan+0g53Y92jHzsndbgvQVY
2ojQUXtl0MVJnJ2gy3XvZ1QUWPwKxBGZsEe38zLJVkQT/XH8KZejTugMdQ2chSOT
ZK4yUM8y8K2oQqDFXRMnUyhgDMJbkaJEc9Cca2F+x/AROs7jz+d4ZWCQO6EQ00Xq
PWwpjDZDMYlv4zUCggEBAOu4hTvYzxI+n1fBYP/OZIBH8IAgeTWYz8w6elL4ku8L
IbgsLzy4/dJ+TWsLa1pLti4PcKdCVIZTo80itR2rgMq16OFLzsw7vnpceuRyMid4
lTyCd4+Qi/doz1ScAZ0rp182CQRwYYUkAA8/0e99+pMYEDOAFTll6FQb++puCBXS
ar/rP3NbNotHTPwa0VrG6rSvFgy+YZ/3S31Ntj6j/wDnWtIKdhyJ/z29eYSWr77k
VBjl7otgvqOqOZW4HugBoqYh/vRz2FKn0T+S1VbHmu651EBnw19Tv3Z1HeRUWvbv
xX/O+LICaMeE9Kvw+JnUO8x6hbOYcC+WLcabQLhq6PMCggEBALWx8VN+WcvyMpAR
F+TaZvP/72b6El/4senNblLpEdutoW2GblJpF+QYRa5R2B/nUuOPtZMVS1xoLiNM
HgOO5A/Qm1/MT3DJANE6S4iZNNEhUbs3J8woUG6OFYObBfq1THUeS/j73bl5R24i
NO4PIUGn1+VkBv29MZ6TVabESbtLo8a8Qw3RsO0SQp5/a3O+cRq4079ewrdgKBwB
VqaWHIiL2vIhVi6dqyKjEvBMio4jd1D2Arai0I9buqbmwOLFWUtNPUU4SDRRbE9w
wV3bwTr8w1PiwzxGYztlGZId6dTZPH5QuD/pSgALtBQsoEDV0vEPG3qSJZLGZY0K
TEKGhYECggEBALjjRj2m1ORukfT3DOoYLOQhiRY2YlwTvAloZMHnjvhINu6KWZK7
VvtfbcHkdxOgBwkhuy617C5gND6WVpErEB3viPYNy+qNgd3f49SDbatf/U401yqY
KfCpGNY4d1ub/e/EJlaA/zy6/AD6AeRjX8M4QJzkfcFDmXM/b9x06YqUPH7EOkR0
6tdb2Zp0PnmBRF7sZdMhENmz0lY6OhPv9ffzf1z4L6Q66SS4FTRWLQsBdKUC1JQm
EeG1hu1UOYmonrbIO33pz2clkg7XUNZ8QZ21zDGoMan3ullji0qoj6DYeITDBnY5
RY4ZTv/+RkACI9VC1NQFYRkyJj19UMpVsNkCggEBAKhefsbWGQ/7oI6O2+YOFtuM
qs9FKACYXjiFXwN/ZD7Kx+ge6w09wFZP8k8LZfX/QnI0LX6zj/m22LoVksyy62Gg
pahR0kZNap2Z/03vaWzJeVO27oHLUrHMGo4EFrzrObLh+DyE0TKs0rgRL4h8j1pv
jJ3kpit2nfY7jazwfyQ2i0g66qVC1/d3dqYUy66hUv8CxIGe7Sffa6YfEBPtl1Wc
YEZi5dVD8qrIpK5nC0De+zNnPbawnS4EuWuzMWATlVn6EIEYO0lHJ7Omr0yGlSwk
whfprLwgHeAp5AWfZI3KIsH2B7wkNkSrWY2A5ZnrYY9bXj/IJkg/Lwz1ZttGcgE=
-----END RSA PRIVATE KEY-----
